tests/data/upgrade-models/sb10_p12uhs5_1247_trans_301/p12udt6981/OpenDSS/Lines.dss
New Line.l(r:p12udt954lv-p12ulv3401) Units=km Length=0.013238 bus1=p12udt954lv.1.2 bus2=p12ulv3401.1.2 switch=n enabled=y phases=2 Linecode=1P_UG_AL_1/0_Brenau_2

New Line.l(r:p12udm3811-p12ulv3331) Units=km Length=0.0132265 bus1=p12udm3811.1.2 bus2=p12ulv3331.1.2 switch=n enabled=y phases=2 Linecode=1P_UG_AL_1/0_Brenau_2

New Line.l(r:p12udm3811-p12ulv3348) Units=km Length=0.0125966 bus1=p12udm3811.1.2 bus2=p12ulv3348.1.2 switch=n enabled=y phases=2 Linecode=1P_UG_AL_1/0_Brenau_2

New Line.l(r:p12udm3811-p12udt954lv) Units=km Length=0.0174561 bus1=p12udt954lv.1.2 bus2=p12udm3811.1.2 switch=n enabled=y phases=2 Linecode=1P_UG_AL_1/0_Brenau_2

New Line.l(r:p12udm3812-p12ulv3342) Units=km Length=0.01914 bus1=p12udm3812.1.2 bus2=p12ulv3342.1.2 switch=n enabled=y phases=2 Linecode=1P_UG_AL_1/0_Brenau_2

New Line.l(r:p12udm3812-p12udt954lv) Units=km Length=0.021126700000000005 bus1=p12udt954lv.1.2 bus2=p12udm3812.1.2 switch=n enabled=y phases=2 Linecode=1P_UG_AL_1/0_Brenau_2

New Line.l(r:p12udt955lv-p12ulv3363) Units=km Length=0.0495176 bus1=p12udt955lv.1.2 bus2=p12ulv3363.1.2 switch=n enabled=y phases=2 Linecode=1P_UG_AL_1/0_Brenau_2

New Line.l(r:p12udm3815-p12ulv3332) Units=km Length=0.0251689 bus1=p12udm3815.1.2 bus2=p12ulv3332.1.2 switch=n enabled=y phases=2 Linecode=1P_UG_AL_1/0_Brenau_2

New Line.l(r:p12udm3815-p12udt955lv) Units=km Length=0.0175186 bus1=p12udt955lv.1.2 bus2=p12udm3815.1.2 switch=n enabled=y phases=2 Linecode=1P_UG_AL_1/0_Brenau_2

New Line.l(r:p12udm3816-p12ulv3336) Units=km Length=0.0196575 bus1=p12udm3816.1.2 bus2=p12ulv3336.1.2 switch=n enabled=y phases=2 Linecode=1P_UG_AL_1/0_Brenau_2

New Line.l(r:p12udm3816-p12udt955lv) Units=km Length=0.0287568 bus1=p12udt955lv.1.2 bus2=p12udm3816.1.2 switch=n enabled=y phases=2 Linecode=1P_UG_AL_1/0_Brenau_2

New Line.l(r:p12udt964lv-p12ulv3344) Units=km Length=0.0277317 bus1=p12udt964lv.1.2 bus2=p12ulv3344.1.2 switch=n enabled=y phases=2 Linecode=1P_OH_AL_4/0_Zuzara_2

New Line.l(r:p12udm3886-p12ulv3397) Units=km Length=0.0159312 bus1=p12udm3886.1.2 bus2=p12ulv3397.1.2 switch=n enabled=y phases=2 Linecode=1P_OH_AL_2/0_Rucina_2

New Line.l(r:p12udm3886-p12ulv34629) Units=km Length=0.012392900000000002 bus1=p12udm3886.1.2 bus2=p12ulv34629.1.2 switch=n enabled=y phases=2 Linecode=1P_OH_AL_2/0_Rucina_2

New Line.l(r:p12udm3886-p12udt964lv) Units=km Length=0.0172203 bus1=p12udt964lv.1.2 bus2=p12udm3886.1.2 switch=n enabled=y phases=2 Linecode=1P_OH_AL_2/0_Rucina_2

New Line.l(r:p12udm3887-p12ulv4184) Units=km Length=0.058796 bus1=p12udm3887.1.2 bus2=p12ulv4184.1.2 switch=n enabled=y phases=2 Linecode=1P_OH_AL_4/0_Zuzara_2

New Line.l(r:p12udm3887-p12udt964lv) Units=km Length=0.0212466 bus1=p12udt964lv.1.2 bus2=p12udm3887.1.2 switch=n enabled=y phases=2 Linecode=1P_OH_AL_2/0_Rucina_2

New Line.l(r:p12udt965lv-p12ulv3355) Units=km Length=0.048522100000000006 bus1=p12udt965lv.1.2 bus2=p12ulv3355.1.2 switch=n enabled=y phases=2 Linecode=1P_UG_AL_1/0_Brenau_2

New Line.l(r:p12udt965lv-p12ulv3395) Units=km Length=0.017526 bus1=p12udt965lv.1.2 bus2=p12ulv3395.1.2 switch=n enabled=y phases=2 Linecode=1P_UG_AL_1/0_Brenau_2

New Line.l(r:p12udm3892-p12ulv3391) Units=km Length=0.0177894 bus1=p12udm3892.1.2 bus2=p12ulv3391.1.2 switch=n enabled=y phases=2 Linecode=1P_UG_AL_1/0_Brenau_2

New Line.l(r:p12udm3889-p12ulv3346) Units=km Length=0.0143312 bus1=p12udm3889.1.2 bus2=p12ulv3346.1.2 switch=n enabled=y phases=2 Linecode=1P_UG_AL_1/0_Brenau_2

New Line.l(r:p12udm3889-p12ulv3347) Units=km Length=0.0408313 bus1=p12udm3889.1.2 bus2=p12ulv3347.1.2 switch=n enabled=y phases=2 Linecode=1P_UG_AL_1/0_Brenau_2

New Line.l(r:p12udm3889-p12ulv3457) Units=km Length=0.0154238 bus1=p12udm3889.1.2 bus2=p12ulv3457.1.2 switch=n enabled=y phases=2 Linecode=1P_UG_AL_1/0_Brenau_2

New Line.l(r:p12udm3889-p12udm3892) Units=km Length=0.0091493 bus1=p12udm3892.1.2 bus2=p12udm3889.1.2 switch=n enabled=y phases=2 Linecode=1P_UG_AL_1/0_Brenau_2

New Line.l(r:p12udm3892-p12udt965lv) Units=km Length=0.0183085 bus1=p12udt965lv.1.2 bus2=p12udm3892.1.2 switch=n enabled=y phases=2 Linecode=1P_UG_AL_2/0_Converse_2

New Line.l(r:p12udm3895-p12ulv3456) Units=km Length=0.0132795 bus1=p12udm3895.1.2 bus2=p12ulv3456.1.2 switch=n enabled=y phases=2 Linecode=1P_UG_AL_1/0_Brenau_2

New Line.l(r:p12udm3893-p12ulv3394) Units=km Length=0.018785300000000005 bus1=p12udm3893.1.2 bus2=p12ulv3394.1.2 switch=n enabled=y phases=2 Linecode=1P_UG_AL_1/0_Brenau_2

New Line.l(r:p12udm3897-p12ulv3467) Units=km Length=0.0145104 bus1=p12udm3897.1.2 bus2=p12ulv3467.1.2 switch=n enabled=y phases=2 Linecode=1P_UG_AL_1/0_Brenau_2

New Line.l(r:p12udm3893-p12udm3897) Units=km Length=0.0270794 bus1=p12udm3893.1.2 bus2=p12udm3897.1.2 switch=n enabled=y phases=2 Linecode=1P_UG_AL_1/0_Brenau_2

New Line.l(r:p12udm3893-p12udm3895) Units=km Length=0.0091493 bus1=p12udm3895.1.2 bus2=p12udm3893.1.2 switch=n enabled=y phases=2 Linecode=1P_UG_AL_1/0_Brenau_2

New Line.l(r:p12udm3895-p12udt965lv) Units=km Length=0.0091493 bus1=p12udt965lv.1.2 bus2=p12udm3895.1.2 switch=n enabled=y phases=2 Linecode=1P_UG_AL_2/0_Converse_2

New Line.l(r:p12udt967lv-p12ulv3448) Units=km Length=0.013042200000000002 bus1=p12udt967lv.1.2 bus2=p12ulv3448.1.2 switch=n enabled=y phases=2 Linecode=1P_UG_AL_1/0_Brenau_2

New Line.l(r:p12udt967lv-p12ulv4326) Units=km Length=0.0405034 bus1=p12udt967lv.1.2 bus2=p12ulv4326.1.2 switch=n enabled=y phases=2 Linecode=1P_UG_AL_1/0_Brenau_2

New Line.l(r:p12udm3907-p12ulv3490) Units=km Length=0.0310717 bus1=p12udm3907.1.2 bus2=p12ulv3490.1.2 switch=n enabled=y phases=2 Linecode=1P_UG_AL_1/0_Brenau_2

New Line.l(r:p12udm3907-p12ulv4318) Units=km Length=0.016982800000000003 bus1=p12udm3907.1.2 bus2=p12ulv4318.1.2 switch=n enabled=y phases=2 Linecode=1P_UG_AL_1/0_Brenau_2

New Line.l(r:p12udm3903-p12ulv3407) Units=km Length=0.0115192 bus1=p12udm3903.1.2 bus2=p12ulv3407.1.2 switch=n enabled=y phases=2 Linecode=1P_UG_AL_1/0_Brenau_2

New Line.l(r:p12udm3903-p12ulv3480) Units=km Length=0.0412283 bus1=p12udm3903.1.2 bus2=p12ulv3480.1.2 switch=n enabled=y phases=2 Linecode=1P_UG_AL_1/0_Brenau_2

New Line.l(r:p12udm3910-p12ulv4217) Units=km Length=0.0398554 bus1=p12udm3910.1.2 bus2=p12ulv4217.1.2 switch=n enabled=y phases=2 Linecode=1P_UG_AL_1/0_Brenau_2

New Line.l(r:p12udm3909-p12ulv4107) Units=km Length=0.017087 bus1=p12udm3909.1.2 bus2=p12ulv4107.1.2 switch=n enabled=y phases=2 Linecode=1P_UG_AL_1/0_Brenau_2

New Line.l(r:p12udm3909-p12ulv4325) Units=km Length=0.0132672 bus1=p12udm3909.1.2 bus2=p12ulv4325.1.2 switch=n enabled=y phases=2 Linecode=1P_UG_AL_1/0_Brenau_2

New Line.l(r:p12udm3909-p12udm3910) Units=km Length=0.00934864 bus1=p12udm3910.1.2 bus2=p12udm3909.1.2 switch=n enabled=y phases=2 Linecode=1P_UG_AL_1/0_Brenau_2

New Line.l(r:p12udm3903-p12udm3910) Units=km Length=0.018696 bus1=p12udm3903.1.2 bus2=p12udm3910.1.2 switch=n enabled=y phases=2 Linecode=1P_UG_AL_1/0_Brenau_2

New Line.l(r:p12udm3903-p12udm3907) Units=km Length=0.00934735 bus1=p12udm3907.1.2 bus2=p12udm3903.1.2 switch=n enabled=y phases=2 Linecode=1P_UG_AL_2/0_Converse_2

New Line.l(r:p12udm3907-p12udt967lv) Units=km Length=0.00933872 bus1=p12udt967lv.1.2 bus2=p12udm3907.1.2 switch=n enabled=y phases=2 Linecode=1P_UG_AL_4/0_Sweetbriar_2

New Line.l(r:p12udm3908-p12ulv3511) Units=km Length=0.013421 bus1=p12udm3908.1.2 bus2=p12ulv3511.1.2 switch=n enabled=y phases=2 Linecode=1P_UG_AL_1/0_Brenau_2

New Line.l(r:p12udm3902-p12ulv3350) Units=km Length=0.0159036 bus1=p12udm3902.1.2 bus2=p12ulv3350.1.2 switch=n enabled=y phases=2 Linecode=1P_UG_AL_1/0_Brenau_2

New Line.l(r:p12udm3904-p12ulv3422) Units=km Length=0.0151595 bus1=p12udm3904.1.2 bus2=p12ulv3422.1.2 switch=n enabled=y phases=2 Linecode=1P_UG_AL_1/0_Brenau_2

New Line.l(r:p12udm3902-p12udm3904) Units=km Length=0.00934864 bus1=p12udm3902.1.2 bus2=p12udm3904.1.2 switch=n enabled=y phases=2 Linecode=1P_UG_AL_1/0_Brenau_2

New Line.l(r:p12udm3902-p12udm3908) Units=km Length=0.0467294 bus1=p12udm3908.1.2 bus2=p12udm3902.1.2 switch=n enabled=y phases=2 Linecode=1P_UG_AL_1/0_Brenau_2

New Line.l(r:p12udm3908-p12udt967lv) Units=km Length=0.00934735 bus1=p12udt967lv.1.2 bus2=p12udm3908.1.2 switch=n enabled=y phases=2 Linecode=1P_UG_AL_1/0_Brenau_2

New Line.l(r:p12udt972lv-p12ulv3357) Units=km Length=0.0324214 bus1=p12udt972lv.1.2 bus2=p12ulv3357.1.2 switch=n enabled=y phases=2 Linecode=1P_UG_AL_1/0_Brenau_2

New Line.l(r:p12udt972lv-p12ulv3378) Units=km Length=0.021526 bus1=p12udt972lv.1.2 bus2=p12ulv3378.1.2 switch=n enabled=y phases=2 Linecode=1P_UG_AL_1/0_Brenau_2

New Line.l(r:p12udm3942-p12ulv3382) Units=km Length=0.0186852 bus1=p12udm3942.1.2 bus2=p12ulv3382.1.2 switch=n enabled=y phases=2 Linecode=1P_UG_AL_1/0_Brenau_2

New Line.l(r:p12udm3943-p12ulv3406) Units=km Length=0.010628700000000001 bus1=p12udm3943.1.2 bus2=p12ulv3406.1.2 switch=n enabled=y phases=2 Linecode=1P_UG_AL_1/0_Brenau_2

New Line.l(r:p12udm3942-p12udm3943) Units=km Length=0.00988195 bus1=p12udm3942.1.2 bus2=p12udm3943.1.2 switch=n enabled=y phases=2 Linecode=1P_UG_AL_1/0_Brenau_2

New Line.l(r:p12udm3942-p12udt972lv) Units=km Length=0.0197639 bus1=p12udt972lv.1.2 bus2=p12udm3942.1.2 switch=n enabled=y phases=2 Linecode=1P_UG_AL_1/0_Brenau_2

New Line.l(r:p12udm3944-p12ulv4030) Units=km Length=0.017870300000000002 bus1=p12udm3944.1.2 bus2=p12ulv4030.1.2 switch=n enabled=y phases=2 Linecode=1P_UG_AL_1/0_Brenau_2

New Line.l(r:p12udm3944-p12udt972lv) Units=km Length=0.0494072 bus1=p12udt972lv.1.2 bus2=p12udm3944.1.2 switch=n enabled=y phases=2 Linecode=1P_UG_AL_1/0_Brenau_2

New Line.l(r:p12udt974lv-p12ulv4092) Units=km Length=0.0338396 bus1=p12udt974lv.1.2 bus2=p12ulv4092.1.2 switch=n enabled=y phases=2 Linecode=1P_UG_AL_1/0_Brenau_2

New Line.l(r:p12udt974lv-p12ulv4174) Units=km Length=0.01733 bus1=p12udt974lv.1.2 bus2=p12ulv4174.1.2 switch=n enabled=y phases=2 Linecode=1P_UG_AL_1/0_Brenau_2

New Line.l(r:p12udm3948-p12ulv3364) Units=km Length=0.0138736 bus1=p12udm3948.1.2 bus2=p12ulv3364.1.2 switch=n enabled=y phases=2 Linecode=1P_UG_AL_1/0_Brenau_2

New Line.l(r:p12udm3950-p12ulv3409) Units=km Length=0.01764 bus1=p12udm3950.1.2 bus2=p12ulv3409.1.2 switch=n enabled=y phases=2 Linecode=1P_UG_AL_1/0_Brenau_2

New Line.l(r:p12udm3948-p12udm3950) Units=km Length=0.00942206 bus1=p12udm3948.1.2 bus2=p12udm3950.1.2 switch=n enabled=y phases=2 Linecode=1P_UG_AL_1/0_Brenau_2

New Line.l(r:p12udm3948-p12udt974lv) Units=km Length=0.00943365 bus1=p12udt974lv.1.2 bus2=p12udm3948.1.2 switch=n enabled=y phases=2 Linecode=1P_UG_AL_1/0_Brenau_2

New Line.l(r:p12udm3949-p12ulv3386) Units=km Length=0.00880003 bus1=p12udm3949.1.2 bus2=p12ulv3386.1.2 switch=n enabled=y phases=2 Linecode=1P_UG_AL_1/0_Brenau_2

New Line.l(r:p12udm3949-p12udt974lv) Units=km Length=0.0604847 bus1=p12udt974lv.1.2 bus2=p12udm3949.1.2 switch=n enabled=y phases=2 Linecode=1P_UG_AL_1/0_Brenau_2

New Line.l(r:p12udm3955-p12ulv3463) Units=km Length=0.013928300000000001 bus1=p12udm3955.1.2 bus2=p12ulv3463.1.2 switch=n enabled=y phases=2 Linecode=1P_UG_AL_1/0_Brenau_2

New Line.l(r:p12udm3953-p12ulv3367) Units=km Length=0.0127601 bus1=p12udm3953.1.2 bus2=p12ulv3367.1.2 switch=n enabled=y phases=2 Linecode=1P_UG_AL_1/0_Brenau_2

New Line.l(r:p12udm3953-p12udm3955) Units=km Length=0.0472412 bus1=p12udm3955.1.2 bus2=p12udm3953.1.2 switch=n enabled=y phases=2 Linecode=1P_UG_AL_1/0_Brenau_2

New Line.l(r:p12udm3955-p12udt975lv) Units=km Length=0.0479903 bus1=p12udt975lv.1.2 bus2=p12udm3955.1.2 switch=n enabled=y phases=2 Linecode=1P_UG_AL_1/0_Brenau_2

New Line.l(r:p12udm3956-p12ulv3510) Units=km Length=0.0125259 bus1=p12udm3956.1.2 bus2=p12ulv3510.1.2 switch=n enabled=y phases=2 Linecode=1P_UG_AL_1/0_Brenau_2

New Line.l(r:p12udm3954-p12ulv3389) Units=km Length=0.0105524 bus1=p12udm3954.1.2 bus2=p12ulv3389.1.2 switch=n enabled=y phases=2 Linecode=1P_UG_AL_1/0_Brenau_2

New Line.l(r:p12udm3954-p12udm3956) Units=km Length=0.009875980000000001 bus1=p12udm3956.1.2 bus2=p12udm3954.1.2 switch=n enabled=y phases=2 Linecode=1P_UG_AL_1/0_Brenau_2

New Line.l(r:p12udm3956-p12udt975lv) Units=km Length=0.0197409 bus1=p12udt975lv.1.2 bus2=p12udm3956.1.2 switch=n enabled=y phases=2 Linecode=1P_UG_AL_1/0_Brenau_2

New Line.l(r:p12udm3969-p12ulv3379) Units=km Length=0.0160673 bus1=p12udm3969.1.2 bus2=p12ulv3379.1.2 switch=n enabled=y phases=2 Linecode=1P_UG_AL_1/0_Brenau_2

New Line.l(r:p12udm3969-p12ulv3458) Units=km Length=0.0155635 bus1=p12udm3969.1.2 bus2=p12ulv3458.1.2 switch=n enabled=y phases=2 Linecode=1P_UG_AL_1/0_Brenau_2

New Line.l(r:p12udm3970-p12ulv3444) Units=km Length=0.0136732 bus1=p12udm3970.1.2 bus2=p12ulv3444.1.2 switch=n enabled=y phases=2 Linecode=1P_UG_AL_1/0_Brenau_2

New Line.l(r:p12udm3969-p12udm3970) Units=km Length=0.00925014 bus1=p12udm3969.1.2 bus2=p12udm3970.1.2 switch=n enabled=y phases=2 Linecode=1P_UG_AL_1/0_Brenau_2

New Line.l(r:p12udm3969-p12udt978lv) Units=km Length=0.00925946 bus1=p12udt978lv.1.2 bus2=p12udm3969.1.2 switch=n enabled=y phases=2 Linecode=1P_UG_AL_1/0_Brenau_2

New Line.l(r:p12udm3972-p12ulv3504) Units=km Length=0.0146182 bus1=p12udm3972.1.2 bus2=p12ulv3504.1.2 switch=n enabled=y phases=2 Linecode=1P_UG_AL_1/0_Brenau_2

New Line.l(r:p12udm3972-p12udt978lv) Units=km Length=0.0185202 bus1=p12udt978lv.1.2 bus2=p12udm3972.1.2 switch=n enabled=y phases=2 Linecode=1P_UG_AL_1/0_Brenau_2

New Line.l(r:p12udt979lv-p12ulv3390) Units=km Length=0.0163164 bus1=p12udt979lv.1.2 bus2=p12ulv3390.1.2 switch=n enabled=y phases=2 Linecode=1P_UG_AL_1/0_Brenau_2

New Line.l(r:p12udt979lv-p12ulv4164) Units=km Length=0.0421618 bus1=p12udt979lv.1.2 bus2=p12ulv4164.1.2 switch=n enabled=y phases=2 Linecode=1P_UG_AL_1/0_Brenau_2

New Line.l(r:p12udm3974-p12ulv4116) Units=km Length=0.015564 bus1=p12udm3974.1.2 bus2=p12ulv4116.1.2 switch=n enabled=y phases=2 Linecode=1P_UG_AL_1/0_Brenau_2

New Line.l(r:p12udm3975-p12ulv4141) Units=km Length=0.0148884 bus1=p12udm3975.1.2 bus2=p12ulv4141.1.2 switch=n enabled=y phases=2 Linecode=1P_UG_AL_1/0_Brenau_2

New Line.l(r:p12udm3974-p12udm3975) Units=km Length=0.008440590000000001 bus1=p12udm3974.1.2 bus2=p12udm3975.1.2 switch=n enabled=y phases=2 Linecode=1P_UG_AL_1/0_Brenau_2

New Line.l(r:p12udm3974-p12udt979lv) Units=km Length=0.00843059 bus1=p12udt979lv.1.2 bus2=p12udm3974.1.2 switch=n enabled=y phases=2 Linecode=1P_UG_AL_1/0_Brenau_2

New Line.l(r:p12udm3977-p12ulv4322) Units=km Length=0.0159659 bus1=p12udm3977.1.2 bus2=p12ulv4322.1.2 switch=n enabled=y phases=2 Linecode=1P_UG_AL_1/0_Brenau_2

New Line.l(r:p12udm3977-p12udt979lv) Units=km Length=0.00972402 bus1=p12udt979lv.1.2 bus2=p12udm3977.1.2 switch=n enabled=y phases=2 Linecode=1P_UG_AL_1/0_Brenau_2

New Line.l(r:p12udt981lv-p12ulv3479) Units=km Length=0.0121924 bus1=p12udt981lv.1.2 bus2=p12ulv3479.1.2 switch=n enabled=y phases=2 Linecode=1P_UG_AL_1/0_Brenau_2

New Line.l(r:p12udm3982-p12ulv3399) Units=km Length=0.0153101 bus1=p12udm3982.1.2 bus2=p12ulv3399.1.2 switch=n enabled=y phases=2 Linecode=1P_UG_AL_1/0_Brenau_2

New Line.l(r:p12udm3982-p12udt981lv) Units=km Length=0.0125427 bus1=p12udt981lv.1.2 bus2=p12udm3982.1.2 switch=n enabled=y phases=2 Linecode=1P_UG_AL_1/0_Brenau_2

New Line.l(r:p12udm3983-p12ulv3442) Units=km Length=0.0116777 bus1=p12udm3983.1.2 bus2=p12ulv3442.1.2 switch=n enabled=y phases=2 Linecode=1P_UG_AL_1/0_Brenau_2

New Line.l(r:p12udm3983-p12udt981lv) Units=km Length=0.0055141700000000005 bus1=p12udt981lv.1.2 bus2=p12udm3983.1.2 switch=n enabled=y phases=2 Linecode=1P_UG_AL_1/0_Brenau_2

New Line.l(r:p12udt982lv-p12ulv3408) Units=km Length=0.0153362 bus1=p12udt982lv.1.2 bus2=p12ulv3408.1.2 switch=n enabled=y phases=2 Linecode=1P_UG_AL_1/0_Brenau_2

New Line.l(r:p12udt982lv-p12ulv3460) Units=km Length=0.0329262 bus1=p12udt982lv.1.2 bus2=p12ulv3460.1.2 switch=n enabled=y phases=2 Linecode=1P_UG_AL_1/0_Brenau_2

New Line.l(r:p12udm3986-p12ulv3440) Units=km Length=0.0686625 bus1=p12udm3986.1.2 bus2=p12ulv3440.1.2 switch=n enabled=y phases=2 Linecode=1P_UG_AL_1/0_Brenau_2

New Line.l(r:p12udm3986-p12udt982lv) Units=km Length=0.00934864 bus1=p12udt982lv.1.2 bus2=p12udm3986.1.2 switch=n enabled=y phases=2 Linecode=1P_UG_AL_1/0_Brenau_2

New Line.l(r:p12udm3988-p12ulv4110) Units=km Length=0.0176899 bus1=p12udm3988.1.2 bus2=p12ulv4110.1.2 switch=n enabled=y phases=2 Linecode=1P_UG_AL_1/0_Brenau_2

New Line.l(r:p12udm3988-p12udt982lv) Units=km Length=0.00934735 bus1=p12udt982lv.1.2 bus2=p12udm3988.1.2 switch=n enabled=y phases=2 Linecode=1P_UG_AL_1/0_Brenau_2

New Line.l(r:p12udt987lv-p12ulv3428) Units=km Length=0.0194965 bus1=p12udt987lv.1.2 bus2=p12ulv3428.1.2 switch=n enabled=y phases=2 Linecode=1P_UG_AL_1/0_Brenau_2

New Line.l(r:p12udt990lv-p12ulv3451) Units=km Length=0.016345 bus1=p12udt990lv.1.2 bus2=p12ulv3451.1.2 switch=n enabled=y phases=2 Linecode=1P_UG_AL_1/0_Brenau_2

New Line.l(r:p12udt990lv-p12ulv4109) Units=km Length=0.019086500000000003 bus1=p12udt990lv.1.2 bus2=p12ulv4109.1.2 switch=n enabled=y phases=2 Linecode=1P_UG_AL_1/0_Brenau_2

New Line.l(r:p12udm4022-p12ulv3506) Units=km Length=0.00946755 bus1=p12udm4022.1.2 bus2=p12ulv3506.1.2 switch=n enabled=y phases=2 Linecode=1P_UG_AL_1/0_Brenau_2

New Line.l(r:p12udm4026-p12ulv4126) Units=km Length=0.014248000000000002 bus1=p12udm4026.1.2 bus2=p12ulv4126.1.2 switch=n enabled=y phases=2 Linecode=1P_UG_AL_1/0_Brenau_2

New Line.l(r:p12udm4021-p12ulv3487) Units=km Length=0.014123 bus1=p12udm4021.1.2 bus2=p12ulv3487.1.2 switch=n enabled=y phases=2 Linecode=1P_UG_AL_1/0_Brenau_2

New Line.l(r:p12udm4021-p12udm4026) Units=km Length=0.00965611 bus1=p12udm4026.1.2 bus2=p12udm4021.1.2 switch=n enabled=y phases=2 Linecode=1P_UG_AL_1/0_Brenau_2

New Line.l(r:p12udm4022-p12udm4026) Units=km Length=0.0254222 bus1=p12udm4022.1.2 bus2=p12udm4026.1.2 switch=n enabled=y phases=2 Linecode=1P_UG_AL_1/0_Brenau_2

New Line.l(r:p12udm4022-p12udt990lv) Units=km Length=0.0169415 bus1=p12udt990lv.1.2 bus2=p12udm4022.1.2 switch=n enabled=y phases=2 Linecode=1P_UG_AL_1/0_Brenau_2

New Line.l(r:p12udm4023-p12ulv3516) Units=km Length=0.021722500000000002 bus1=p12udm4023.1.2 bus2=p12ulv3516.1.2 switch=n enabled=y phases=2 Linecode=1P_UG_AL_1/0_Brenau_2

New Line.l(r:p12udm4023-p12ulv3574) Units=km Length=0.020715600000000004 bus1=p12udm4023.1.2 bus2=p12ulv3574.1.2 switch=n enabled=y phases=2 Linecode=1P_UG_AL_1/0_Brenau_2

New Line.l(r:p12udm4023-p12ulv4166) Units=km Length=0.0458537 bus1=p12udm4023.1.2 bus2=p12ulv4166.1.2 switch=n enabled=y phases=2 Linecode=1P_UG_AL_1/0_Brenau_2

New Line.l(r:p12udm4023-p12ulv4205) Units=km Length=0.041236 bus1=p12udm4023.1.2 bus2=p12ulv4205.1.2 switch=n enabled=y phases=2 Linecode=1P_UG_AL_1/0_Brenau_2

New Line.l(r:p12udm4023-p12ulv4224) Units=km Length=0.039796500000000005 bus1=p12udm4023.1.2 bus2=p12ulv4224.1.2 switch=n enabled=y phases=2 Linecode=1P_UG_AL_1/0_Brenau_2

New Line.l(r:p12udm4023-p12ulv4225) Units=km Length=0.0186598 bus1=p12udm4023.1.2 bus2=p12ulv4225.1.2 switch=n enabled=y phases=2 Linecode=1P_UG_AL_1/0_Brenau_2

New Line.l(r:p12udm4023-p12udt990lv) Units=km Length=0.00848071 bus1=p12udt990lv.1.2 bus2=p12udm4023.1.2 switch=n enabled=y phases=2 Linecode=1P_UG_AL_4/0_Sweetbriar_2

New Line.l(r:p12udt992lv-p12ulv3474) Units=km Length=0.0120105 bus1=p12udt992lv.1.2 bus2=p12ulv3474.1.2 switch=n enabled=y phases=2 Linecode=1P_UG_AL_1/0_Brenau_2

New Line.l(r:p12udm4035-p12ulv3502) Units=km Length=0.0486615 bus1=p12udm4035.1.2 bus2=p12ulv3502.1.2 switch=n enabled=y phases=2 Linecode=1P_UG_AL_1/0_Brenau_2

New Line.l(r:p12udm4035-p12udt992lv) Units=km Length=0.00906453 bus1=p12udt992lv.1.2 bus2=p12udm4035.1.2 switch=n enabled=y phases=2 Linecode=1P_UG_AL_1/0_Brenau_2

New Line.l(r:p12udt997lv-p12ulv3519) Units=km Length=0.0218406 bus1=p12udt997lv.1.2 bus2=p12ulv3519.1.2 switch=n enabled=y phases=2 Linecode=1P_UG_AL_1/0_Brenau_2

New Line.l(r:p12udt997lv-p12ulv3535) Units=km Length=0.0195569 bus1=p12udt997lv.1.2 bus2=p12ulv3535.1.2 switch=n enabled=y phases=2 Linecode=1P_UG_AL_1/0_Brenau_2

New Line.l(r:p12udt997lv-p12ulv4105) Units=km Length=0.0249119 bus1=p12udt997lv.1.2 bus2=p12ulv4105.1.2 switch=n enabled=y phases=2 Linecode=1P_UG_AL_1/0_Brenau_2

New Line.l(r:p12udm4071-p12ulv3554) Units=km Length=0.0191248 bus1=p12udm4071.1.2 bus2=p12ulv3554.1.2 switch=n enabled=y phases=2 Linecode=1P_UG_AL_1/0_Brenau_2

New Line.l(r:p12udm4071-p12udt997lv) Units=km Length=0.00968614 bus1=p12udt997lv.1.2 bus2=p12udm4071.1.2 switch=n enabled=y phases=2 Linecode=1P_UG_AL_1/0_Brenau_2

New Line.l(r:p12udm4076-p12ulv3521) Units=km Length=0.0127232 bus1=p12udm4076.1.2 bus2=p12ulv3521.1.2 switch=n enabled=y phases=2 Linecode=1P_UG_AL_1/0_Brenau_2

New Line.l(r:p12udm4078-p12ulv3629) Units=km Length=0.0141526 bus1=p12udm4078.1.2 bus2=p12ulv3629.1.2 switch=n enabled=y phases=2 Linecode=1P_UG_AL_1/0_Brenau_2

New Line.l(r:p12udm4078-p12ulv4203) Units=km Length=0.0152811 bus1=p12udm4078.1.2 bus2=p12ulv4203.1.2 switch=n enabled=y phases=2 Linecode=1P_UG_AL_1/0_Brenau_2

New Line.l(r:p12udm4083-p12ulv4301) Units=km Length=0.0154441 bus1=p12udm4083.1.2 bus2=p12ulv4301.1.2 switch=n enabled=y phases=2 Linecode=1P_UG_AL_1/0_Brenau_2

New Line.l(r:p12udm4078-p12udm4083) Units=km Length=0.00960538 bus1=p12udm4078.1.2 bus2=p12udm4083.1.2 switch=n enabled=y phases=2 Linecode=1P_UG_AL_1/0_Brenau_2

New Line.l(r:p12udm4076-p12udm4078) Units=km Length=0.0192196 bus1=p12udm4076.1.2 bus2=p12udm4078.1.2 switch=n enabled=y phases=2 Linecode=1P_UG_AL_2/0_Converse_2

New Line.l(r:p12udm4076-p12udt999lv) Units=km Length=0.0192108 bus1=p12udt999lv.1.2 bus2=p12udm4076.1.2 switch=n enabled=y phases=2 Linecode=1P_UG_AL_4/0_Sweetbriar_2

New Line.l(r:p12udm4077-p12ulv3582) Units=km Length=0.0079493 bus1=p12udm4077.1.2 bus2=p12ulv3582.1.2 switch=n enabled=y phases=2 Linecode=1P_UG_AL_1/0_Brenau_2

New Line.l(r:p12udm4081-p12ulv4230) Units=km Length=0.0322017 bus1=p12udm4081.1.2 bus2=p12ulv4230.1.2 switch=n enabled=y phases=2 Linecode=1P_UG_AL_1/0_Brenau_2

New Line.l(r:p12udm4081-p12ulv4285) Units=km Length=0.0171804 bus1=p12udm4081.1.2 bus2=p12ulv4285.1.2 switch=n enabled=y phases=2 Linecode=1P_UG_AL_1/0_Brenau_2

New Line.l(r:p12udm4077-p12udm4081) Units=km Length=0.0480884 bus1=p12udm4077.1.2 bus2=p12udm4081.1.2 switch=n enabled=y phases=2 Linecode=1P_UG_AL_1/0_Brenau_2

New Line.l(r:p12udm4077-p12udt999lv) Units=km Length=0.0186057 bus1=p12udt999lv.1.2 bus2=p12udm4077.1.2 switch=n enabled=y phases=2 Linecode=1P_UG_AL_1/0_Brenau_2

New Line.l(r:p12udm4079-p12ulv4119) Units=km Length=0.0168465 bus1=p12udm4079.1.2 bus2=p12ulv4119.1.2 switch=n enabled=y phases=2 Linecode=1P_UG_AL_1/0_Brenau_2

New Line.l(r:p12udm4079-p12udt999lv) Units=km Length=0.0567182 bus1=p12udt999lv.1.2 bus2=p12udm4079.1.2 switch=n enabled=y phases=2 Linecode=1P_UG_AL_1/0_Brenau_2

New Line.l(r:p12udt1001lv-p12ulv3617) Units=km Length=0.0141887 bus1=p12udt1001lv.1.2 bus2=p12ulv3617.1.2 switch=n enabled=y phases=2 Linecode=1P_UG_AL_1/0_Brenau_2

New Line.l(r:p12udt1001lv-p12ulv3650) Units=km Length=0.0150814 bus1=p12udt1001lv.1.2 bus2=p12ulv3650.1.2 switch=n enabled=y phases=2 Linecode=1P_UG_AL_1/0_Brenau_2

New Line.l(r:p12udm4103-p12ulv3596) Units=km Length=0.0150331 bus1=p12udm4103.1.2 bus2=p12ulv3596.1.2 switch=n enabled=y phases=2 Linecode=1P_UG_AL_1/0_Brenau_2

New Line.l(r:p12udm4107-p12ulv3655) Units=km Length=0.0123514 bus1=p12udm4107.1.2 bus2=p12ulv3655.1.2 switch=n enabled=y phases=2 Linecode=1P_UG_AL_1/0_Brenau_2

New Line.l(r:p12udm4103-p12udm4107) Units=km Length=0.0375354 bus1=p12udm4103.1.2 bus2=p12udm4107.1.2 switch=n enabled=y phases=2 Linecode=1P_UG_AL_1/0_Brenau_2

New Line.l(r:p12udm4103-p12udt1001lv) Units=km Length=0.0556156 bus1=p12udt1001lv.1.2 bus2=p12udm4103.1.2 switch=n enabled=y phases=2 Linecode=1P_UG_AL_1/0_Brenau_2

New Line.l(r:p12udm4105-p12ulv3630) Units=km Length=0.020188 bus1=p12udm4105.1.2 bus2=p12ulv3630.1.2 switch=n enabled=y phases=2 Linecode=1P_UG_AL_1/0_Brenau_2

New Line.l(r:p12udm4102-p12ulv3523) Units=km Length=0.0193178 bus1=p12udm4102.1.2 bus2=p12ulv3523.1.2 switch=n enabled=y phases=2 Linecode=1P_UG_AL_1/0_Brenau_2

New Line.l(r:p12udm4102-p12udm4105) Units=km Length=0.00724589 bus1=p12udm4105.1.2 bus2=p12udm4102.1.2 switch=n enabled=y phases=2 Linecode=1P_UG_AL_1/0_Brenau_2

New Line.l(r:p12udm4105-p12udt1001lv) Units=km Length=0.026031 bus1=p12udt1001lv.1.2 bus2=p12udm4105.1.2 switch=n enabled=y phases=2 Linecode=1P_UG_AL_1/0_Brenau_2

New Line.l(r:p12udt1003lv-p12ulv3526) Units=km Length=0.011596300000000002 bus1=p12udt1003lv.1.2 bus2=p12ulv3526.1.2 switch=n enabled=y phases=2 Linecode=1P_OH_AL_2/0_Rucina_2

New Line.l(r:p12udt1003lv-p12ulv3643) Units=km Length=0.018280400000000002 bus1=p12udt1003lv.1.2 bus2=p12ulv3643.1.2 switch=n enabled=y phases=2 Linecode=1P_OH_AL_2/0_Rucina_2

New Line.l(r:p12udm4115-p12ulv3604) Units=km Length=0.0116661 bus1=p12udm4115.1.2 bus2=p12ulv3604.1.2 switch=n enabled=y phases=2 Linecode=1P_OH_AL_2/0_Rucina_2

New Line.l(r:p12udm4115-p12udt1003lv) Units=km Length=0.0417183 bus1=p12udt1003lv.1.2 bus2=p12udm4115.1.2 switch=n enabled=y phases=2 Linecode=1P_OH_AL_4/0_Zuzara_2

New Line.l(r:p12udt1008lv-p12ulv3555) Units=km Length=0.0118253 bus1=p12udt1008lv.1.2 bus2=p12ulv3555.1.2 switch=n enabled=y phases=2 Linecode=1P_UG_AL_1/0_Brenau_2

New Line.l(r:p12udm4138-p12ulv3568) Units=km Length=0.0145371 bus1=p12udm4138.1.2 bus2=p12ulv3568.1.2 switch=n enabled=y phases=2 Linecode=1P_UG_AL_1/0_Brenau_2

New Line.l(r:p12udm4135-p12ulv3539) Units=km Length=0.0174201 bus1=p12udm4135.1.2 bus2=p12ulv3539.1.2 switch=n enabled=y phases=2 Linecode=1P_UG_AL_1/0_Brenau_2

New Line.l(r:p12udm4145-p12ulv4040) Units=km Length=0.0079556 bus1=p12udm4145.1.2 bus2=p12ulv4040.1.2 switch=n enabled=y phases=2 Linecode=1P_UG_AL_1/0_Brenau_2

New Line.l(r:p12udm4145-p12ulv4183) Units=km Length=0.00975846 bus1=p12udm4145.1.2 bus2=p12ulv4183.1.2 switch=n enabled=y phases=2 Linecode=1P_UG_AL_1/0_Brenau_2

New Line.l(r:p12udm4146-p12ulv4057) Units=km Length=0.016805600000000004 bus1=p12udm4146.1.2 bus2=p12ulv4057.1.2 switch=n enabled=y phases=2 Linecode=1P_UG_AL_1/0_Brenau_2

New Line.l(r:p12udm4145-p12udm4146) Units=km Length=0.0194173 bus1=p12udm4145.1.2 bus2=p12udm4146.1.2 switch=n enabled=y phases=2 Linecode=1P_UG_AL_1/0_Brenau_2

New Line.l(r:p12udm4135-p12udm4145) Units=km Length=0.00971478 bus1=p12udm4135.1.2 bus2=p12udm4145.1.2 switch=n enabled=y phases=2 Linecode=1P_UG_AL_1/0_Brenau_2

New Line.l(r:p12udm4135-p12udm4138) Units=km Length=0.00971363 bus1=p12udm4138.1.2 bus2=p12udm4135.1.2 switch=n enabled=y phases=2 Linecode=1P_UG_AL_1/0_Brenau_2

New Line.l(r:p12udm4138-p12udt1008lv) Units=km Length=0.0097037 bus1=p12udt1008lv.1.2 bus2=p12udm4138.1.2 switch=n enabled=y phases=2 Linecode=1P_UG_AL_2/0_Converse_2

New Line.l(r:p12udm4139-p12ulv3573) Units=km Length=0.0280645 bus1=p12udm4139.1.2 bus2=p12ulv3573.1.2 switch=n enabled=y phases=2 Linecode=1P_UG_AL_1/0_Brenau_2

New Line.l(r:p12udm4141-p12ulv3606) Units=km Length=0.0393107 bus1=p12udm4141.1.2 bus2=p12ulv3606.1.2 switch=n enabled=y phases=2 Linecode=1P_UG_AL_1/0_Brenau_2

New Line.l(r:p12udm4136-p12ulv3550) Units=km Length=0.00940656 bus1=p12udm4136.1.2 bus2=p12ulv3550.1.2 switch=n enabled=y phases=2 Linecode=1P_UG_AL_1/0_Brenau_2

New Line.l(r:p12udm4136-p12udm4141) Units=km Length=0.00899914 bus1=p12udm4141.1.2 bus2=p12udm4136.1.2 switch=n enabled=y phases=2 Linecode=1P_UG_AL_1/0_Brenau_2

New Line.l(r:p12udm4140-p12ulv3589) Units=km Length=0.005714830000000001 bus1=p12udm4140.1.2 bus2=p12ulv3589.1.2 switch=n enabled=y phases=2 Linecode=1P_OH_AL_2/0_Rucina_2

New Line.l(r:p12udm4140-p12ulv4272) Units=km Length=0.00695109 bus1=p12udm4140.1.2 bus2=p12ulv4272.1.2 switch=n enabled=y phases=2 Linecode=1P_OH_AL_2/0_Rucina_2

New Line.l(r:p12udm4143-p12ulv3633) Units=km Length=0.0121282 bus1=p12udm4143.1.2 bus2=p12ulv3633.1.2 switch=n enabled=y phases=2 Linecode=1P_OH_AL_2/0_Rucina_2

New Line.l(r:p12udm4143-p12ulv3637) Units=km Length=0.006953110000000001 bus1=p12udm4143.1.2 bus2=p12ulv3637.1.2 switch=n enabled=y phases=2 Linecode=1P_OH_AL_2/0_Rucina_2

New Line.l(r:p12udm4142-p12ulv3610) Units=km Length=0.00632535 bus1=p12udm4142.1.2 bus2=p12ulv3610.1.2 switch=n enabled=y phases=2 Linecode=1P_OH_AL_2/0_Rucina_2

New Line.l(r:p12udm4142-p12udm4143) Units=km Length=0.0183985 bus1=p12udm4143.1.2 bus2=p12udm4142.1.2 switch=n enabled=y phases=2 Linecode=1P_OH_AL_2/0_Rucina_2

New Line.l(r:p12udm4140-p12udm4143) Units=km Length=0.0183985 bus1=p12udm4140.1.2 bus2=p12udm4143.1.2 switch=n enabled=y phases=2 Linecode=1P_OH_AL_2/0_Rucina_2

New Line.l(r:p12udm4140-p12udm4141) Units=km Length=0.0183972 bus1=p12udm4141.1.2 bus2=p12udm4140.1.2 switch=n enabled=y phases=2 Linecode=1P_OH_AL_2/0_Rucina_2

New Line.l(r:p12udm4139-p12udm4141) Units=km Length=0.0097037 bus1=p12udm4139.1.2 bus2=p12udm4141.1.2 switch=n enabled=y phases=2 Linecode=1P_UG_AL_4/0_Sweetbriar_2

New Line.l(r:p12udm4139-p12udt1008lv) Units=km Length=0.00971478 bus1=p12udt1008lv.1.2 bus2=p12udm4139.1.2 switch=n enabled=y phases=2 Linecode=1P_UG_AL_4/0_Sweetbriar_2

New Line.l(r:p12udt1013lv-p12ulv3547) Units=km Length=0.0240371 bus1=p12udt1013lv.1.2 bus2=p12ulv3547.1.2 switch=n enabled=y phases=2 Linecode=1P_OH_AL_2/0_Rucina_2

New Line.l(r:p12udt1013lv-p12ulv3584) Units=km Length=0.0148697 bus1=p12udt1013lv.1.2 bus2=p12ulv3584.1.2 switch=n enabled=y phases=2 Linecode=1P_OH_AL_2/0_Rucina_2

New Line.l(r:p12udt1013lv-p12ulv3592) Units=km Length=0.00876015 bus1=p12udt1013lv.1.2 bus2=p12ulv3592.1.2 switch=n enabled=y phases=2 Linecode=1P_OH_AL_2/0_Rucina_2

New Line.l(r:p12udm4162-p12ulv3548) Units=km Length=0.013641300000000002 bus1=p12udm4162.1.2 bus2=p12ulv3548.1.2 switch=n enabled=y phases=2 Linecode=1P_UG_AL_1/0_Brenau_2

New Line.l(r:p12udm4163-p12ulv4017) Units=km Length=0.0126148 bus1=p12udm4163.1.2 bus2=p12ulv4017.1.2 switch=n enabled=y phases=2 Linecode=1P_UG_AL_1/0_Brenau_2

New Line.l(r:p12udm4162-p12udm4163) Units=km Length=0.009485000000000002 bus1=p12udm4162.1.2 bus2=p12udm4163.1.2 switch=n enabled=y phases=2 Linecode=1P_UG_AL_1/0_Brenau_2

New Line.l(r:p12udm4162-p12udt1014lv) Units=km Length=0.00948608 bus1=p12udt1014lv.1.2 bus2=p12udm4162.1.2 switch=n enabled=y phases=2 Linecode=1P_UG_AL_2/0_Converse_2

New Line.l(r:p12udm4165-p12ulv4235) Units=km Length=0.013057 bus1=p12udm4165.1.2 bus2=p12ulv4235.1.2 switch=n enabled=y phases=2 Linecode=1P_UG_AL_1/0_Brenau_2

New Line.l(r:p12udm4164-p12ulv4160) Units=km Length=0.0186695 bus1=p12udm4164.1.2 bus2=p12ulv4160.1.2 switch=n enabled=y phases=2 Linecode=1P_UG_AL_1/0_Brenau_2

New Line.l(r:p12udm4164-p12udm4165) Units=km Length=0.0189611 bus1=p12udm4165.1.2 bus2=p12udm4164.1.2 switch=n enabled=y phases=2 Linecode=1P_UG_AL_1/0_Brenau_2

New Line.l(r:p12udm4165-p12udt1014lv) Units=km Length=0.00948608 bus1=p12udt1014lv.1.2 bus2=p12udm4165.1.2 switch=n enabled=y phases=2 Linecode=1P_UG_AL_1/0_Brenau_2

New Line.l(r:p12udt1015lv-p12ulv3640) Units=km Length=0.009393880000000002 bus1=p12udt1015lv.1.2 bus2=p12ulv3640.1.2 switch=n enabled=y phases=2 Linecode=1P_UG_AL_1/0_Brenau_2

New Line.l(r:p12udm4167-p12ulv3553) Units=km Length=0.0163373 bus1=p12udm4167.1.2 bus2=p12ulv3553.1.2 switch=n enabled=y phases=2 Linecode=1P_UG_AL_1/0_Brenau_2

New Line.l(r:p12udm4169-p12ulv3628) Units=km Length=0.040397100000000005 bus1=p12udm4169.1.2 bus2=p12ulv3628.1.2 switch=n enabled=y phases=2 Linecode=1P_UG_AL_1/0_Brenau_2

New Line.l(r:p12udm4166-p12ulv3549) Units=km Length=0.0159603 bus1=p12udm4166.1.2 bus2=p12ulv3549.1.2 switch=n enabled=y phases=2 Linecode=1P_UG_AL_1/0_Brenau_2

New Line.l(r:p12udm4166-p12ulv4311) Units=km Length=0.00833876 bus1=p12udm4166.1.2 bus2=p12ulv4311.1.2 switch=n enabled=y phases=2 Linecode=1P_UG_AL_1/0_Brenau_2

New Line.l(r:p12udm4166-p12udm4169) Units=km Length=0.00971478 bus1=p12udm4169.1.2 bus2=p12udm4166.1.2 switch=n enabled=y phases=2 Linecode=1P_UG_AL_1/0_Brenau_2

New Line.l(r:p12udm4167-p12udm4169) Units=km Length=0.00971363 bus1=p12udm4167.1.2 bus2=p12udm4169.1.2 switch=n enabled=y phases=2 Linecode=1P_UG_AL_1/0_Brenau_2

New Line.l(r:p12udm4167-p12udt1015lv) Units=km Length=0.0097037 bus1=p12udt1015lv.1.2 bus2=p12udm4167.1.2 switch=n enabled=y phases=2 Linecode=1P_UG_AL_2/0_Converse_2

New Line.l(r:p12udm4172-p12ulv4073) Units=km Length=0.0142249 bus1=p12udm4172.1.2 bus2=p12ulv4073.1.2 switch=n enabled=y phases=2 Linecode=1P_UG_AL_1/0_Brenau_2

New Line.l(r:p12udm4171-p12ulv3653) Units=km Length=0.0253155 bus1=p12udm4171.1.2 bus2=p12ulv3653.1.2 switch=n enabled=y phases=2 Linecode=1P_UG_AL_1/0_Brenau_2

New Line.l(r:p12udm4171-p12ulv4087) Units=km Length=0.0128516 bus1=p12udm4171.1.2 bus2=p12ulv4087.1.2 switch=n enabled=y phases=2 Linecode=1P_UG_AL_1/0_Brenau_2

New Line.l(r:p12udm4168-p12ulv3557) Units=km Length=0.0483204 bus1=p12udm4168.1.2 bus2=p12ulv3557.1.2 switch=n enabled=y phases=2 Linecode=1P_UG_AL_1/0_Brenau_2

New Line.l(r:p12udm4168-p12udm4171) Units=km Length=0.00966282 bus1=p12udm4171.1.2 bus2=p12udm4168.1.2 switch=n enabled=y phases=2 Linecode=1P_UG_AL_1/0_Brenau_2

New Line.l(r:p12udm4171-p12udm4172) Units=km Length=0.0773732 bus1=p12udm4172.1.2 bus2=p12udm4171.1.2 switch=n enabled=y phases=2 Linecode=1P_UG_AL_1/0_Brenau_2

New Line.l(r:p12udm4172-p12udt1015lv) Units=km Length=0.0194185 bus1=p12udt1015lv.1.2 bus2=p12udm4172.1.2 switch=n enabled=y phases=2 Linecode=1P_UG_AL_2/0_Converse_2

New Line.l(r:p12udt1017lv-p12ulv3556) Units=km Length=0.00408711 bus1=p12udt1017lv.1.2 bus2=p12ulv3556.1.2 switch=n enabled=y phases=2 Linecode=1P_UG_AL_1/0_Brenau_2

New Line.l(r:p12udt1017lv-p12ulv3962) Units=km Length=0.0246997 bus1=p12udt1017lv.1.2 bus2=p12ulv3962.1.2 switch=n enabled=y phases=2 Linecode=1P_UG_AL_1/0_Brenau_2

New Line.l(r:p12udt1017lv-p12ulv34592) Units=km Length=0.00581426 bus1=p12udt1017lv.1.2 bus2=p12ulv34592.1.2 switch=n enabled=y phases=2 Linecode=1P_UG_AL_1/0_Brenau_2

New Line.l(r:p12udm4180-p12ulv3958) Units=km Length=0.0194021 bus1=p12udm4180.1.2 bus2=p12ulv3958.1.2 switch=n enabled=y phases=2 Linecode=1P_UG_AL_1/0_Brenau_2

New Line.l(r:p12udm4179-p12ulv3957) Units=km Length=0.017108 bus1=p12udm4179.1.2 bus2=p12ulv3957.1.2 switch=n enabled=y phases=2 Linecode=1P_UG_AL_1/0_Brenau_2

New Line.l(r:p12udm4178-p12ulv3601) Units=km Length=0.0165498 bus1=p12udm4178.1.2 bus2=p12ulv3601.1.2 switch=n enabled=y phases=2 Linecode=1P_UG_AL_1/0_Brenau_2

New Line.l(r:p12udm4178-p12udm4179) Units=km Length=0.0500083 bus1=p12udm4179.1.2 bus2=p12udm4178.1.2 switch=n enabled=y phases=2 Linecode=1P_UG_AL_1/0_Brenau_2

New Line.l(r:p12udm4184-p12ulv4077) Units=km Length=0.0158771 bus1=p12udm4184.1.2 bus2=p12ulv4077.1.2 switch=n enabled=y phases=2 Linecode=1P_UG_AL_1/0_Brenau_2

New Line.l(r:p12udm4179-p12udm4184) Units=km Length=0.0189396 bus1=p12udm4179.1.2 bus2=p12udm4184.1.2 switch=n enabled=y phases=2 Linecode=1P_UG_AL_1/0_Brenau_2

New Line.l(r:p12udm4179-p12udm4180) Units=km Length=0.0186486 bus1=p12udm4180.1.2 bus2=p12udm4179.1.2 switch=n enabled=y phases=2 Linecode=1P_UG_AL_2/0_Converse_2

New Line.l(r:p12udm4180-p12udt1017lv) Units=km Length=0.00932486 bus1=p12udt1017lv.1.2 bus2=p12udm4180.1.2 switch=n enabled=y phases=2 Linecode=1P_UG_AL_2/0_Converse_2

New Line.l(r:p12udm4183-p12ulv4048) Units=km Length=0.00733741 bus1=p12udm4183.1.2 bus2=p12ulv4048.1.2 switch=n enabled=y phases=2 Linecode=1P_UG_AL_1/0_Brenau_2

New Line.l(r:p12udm4182-p12ulv3988) Units=km Length=0.00899401 bus1=p12udm4182.1.2 bus2=p12ulv3988.1.2 switch=n enabled=y phases=2 Linecode=1P_UG_AL_1/0_Brenau_2

New Line.l(r:p12udm4177-p12ulv3598) Units=km Length=0.00940479 bus1=p12udm4177.1.2 bus2=p12ulv3598.1.2 switch=n enabled=y phases=2 Linecode=1P_UG_AL_1/0_Brenau_2

New Line.l(r:p12udm4177-p12udm4182) Units=km Length=0.009323780000000002 bus1=p12udm4182.1.2 bus2=p12udm4177.1.2 switch=n enabled=y phases=2 Linecode=1P_UG_AL_1/0_Brenau_2

New Line.l(r:p12udm4182-p12udm4183) Units=km Length=0.027963600000000005 bus1=p12udm4183.1.2 bus2=p12udm4182.1.2 switch=n enabled=y phases=2 Linecode=1P_UG_AL_1/0_Brenau_2

New Line.l(r:p12udm4183-p12udt1017lv) Units=km Length=0.00932486 bus1=p12udt1017lv.1.2 bus2=p12udm4183.1.2 switch=n enabled=y phases=2 Linecode=1P_UG_AL_1/0_Brenau_2

New Line.l(r:p12udt1018lv-p12ulv3975) Units=km Length=0.011713300000000001 bus1=p12udt1018lv.1.2 bus2=p12ulv3975.1.2 switch=n enabled=y phases=2 Linecode=1P_UG_AL_1/0_Brenau_2

New Line.l(r:p12udt1018lv-p12ulv4068) Units=km Length=0.04973810000000001 bus1=p12udt1018lv.1.2 bus2=p12ulv4068.1.2 switch=n enabled=y phases=2 Linecode=1P_UG_AL_1/0_Brenau_2

New Line.l(r:p12udm4186-p12ulv3566) Units=km Length=0.0151867 bus1=p12udm4186.1.2 bus2=p12ulv3566.1.2 switch=n enabled=y phases=2 Linecode=1P_UG_AL_1/0_Brenau_2

New Line.l(r:p12udm4186-p12udt1018lv) Units=km Length=0.00965586 bus1=p12udt1018lv.1.2 bus2=p12udm4186.1.2 switch=n enabled=y phases=2 Linecode=1P_UG_AL_1/0_Brenau_2

New Line.l(r:p12udt1019lv-p12ulv3567) Units=km Length=0.029295400000000003 bus1=p12udt1019lv.1.2 bus2=p12ulv3567.1.2 switch=n enabled=y phases=2 Linecode=1P_UG_AL_1/0_Brenau_2

New Line.l(r:p12udt1019lv-p12ulv3635) Units=km Length=0.0309554 bus1=p12udt1019lv.1.2 bus2=p12ulv3635.1.2 switch=n enabled=y phases=2 Linecode=1P_UG_AL_1/0_Brenau_2

New Line.l(r:p12udt1020lv-p12ulv4232) Units=km Length=0.0387655 bus1=p12udt1020lv.1.2 bus2=p12ulv4232.1.2 switch=n enabled=y phases=2 Linecode=1P_UG_AL_1/0_Brenau_2

New Line.l(r:p12udm4191-p12ulv3570) Units=km Length=0.0115065 bus1=p12udm4191.1.2 bus2=p12ulv3570.1.2 switch=n enabled=y phases=2 Linecode=1P_UG_AL_1/0_Brenau_2

New Line.l(r:p12udm4194-p12ulv4121) Units=km Length=0.0108742 bus1=p12udm4194.1.2 bus2=p12ulv4121.1.2 switch=n enabled=y phases=2 Linecode=1P_UG_AL_1/0_Brenau_2

New Line.l(r:p12udm4191-p12udm4194) Units=km Length=0.0191631 bus1=p12udm4191.1.2 bus2=p12udm4194.1.2 switch=n enabled=y phases=2 Linecode=1P_UG_AL_1/0_Brenau_2

New Line.l(r:p12udm4191-p12udt1020lv) Units=km Length=0.00972995 bus1=p12udt1020lv.1.2 bus2=p12udm4191.1.2 switch=n enabled=y phases=2 Linecode=1P_UG_AL_1/0_Brenau_2

New Line.l(r:p12udm4192-p12ulv3613) Units=km Length=0.0138311 bus1=p12udm4192.1.2 bus2=p12ulv3613.1.2 switch=n enabled=y phases=2 Linecode=1P_UG_AL_1/0_Brenau_2

New Line.l(r:p12udm4192-p12ulv4101) Units=km Length=0.011881 bus1=p12udm4192.1.2 bus2=p12ulv4101.1.2 switch=n enabled=y phases=2 Linecode=1P_UG_AL_1/0_Brenau_2

New Line.l(r:p12udm4192-p12udt1020lv) Units=km Length=0.009739860000000001 bus1=p12udt1020lv.1.2 bus2=p12udm4192.1.2 switch=n enabled=y phases=2 Linecode=1P_UG_AL_1/0_Brenau_2

New Line.l(r:p12udm4207-p12ulv4103) Units=km Length=0.0405612 bus1=p12udm4207.1.2 bus2=p12ulv4103.1.2 switch=n enabled=y phases=2 Linecode=1P_UG_AL_1/0_Brenau_2

New Line.l(r:p12udm4207-p12ulv4222) Units=km Length=0.0193543 bus1=p12udm4207.1.2 bus2=p12ulv4222.1.2 switch=n enabled=y phases=2 Linecode=1P_UG_AL_1/0_Brenau_2

New Line.l(r:p12udm4207-p12ulv4273) Units=km Length=0.0200524 bus1=p12udm4207.1.2 bus2=p12ulv4273.1.2 switch=n enabled=y phases=2 Linecode=1P_UG_AL_1/0_Brenau_2

New Line.l(r:p12udm4206-p12ulv3585) Units=km Length=0.0110116 bus1=p12udm4206.1.2 bus2=p12ulv3585.1.2 switch=n enabled=y phases=2 Linecode=1P_UG_AL_1/0_Brenau_2

New Line.l(r:p12udm4206-p12ulv4249) Units=km Length=0.0193842 bus1=p12udm4206.1.2 bus2=p12ulv4249.1.2 switch=n enabled=y phases=2 Linecode=1P_UG_AL_1/0_Brenau_2

New Line.l(r:p12udm4206-p12udm4207) Units=km Length=0.00976729 bus1=p12udm4207.1.2 bus2=p12udm4206.1.2 switch=n enabled=y phases=2 Linecode=1P_UG_AL_1/0_Brenau_2

New Line.l(r:p12udm4207-p12udt1022lv) Units=km Length=0.00977627 bus1=p12udt1022lv.1.2 bus2=p12udm4207.1.2 switch=n enabled=y phases=2 Linecode=1P_UG_AL_2/0_Converse_2

New Line.l(r:p12udm4211-p12ulv4290) Units=km Length=0.017996300000000003 bus1=p12udm4211.1.2 bus2=p12ulv4290.1.2 switch=n enabled=y phases=2 Linecode=1P_UG_AL_1/0_Brenau_2

New Line.l(r:p12udm4212-p12ulv4317) Units=km Length=0.0141257 bus1=p12udm4212.1.2 bus2=p12ulv4317.1.2 switch=n enabled=y phases=2 Linecode=1P_UG_AL_1/0_Brenau_2

New Line.l(r:p12udm4211-p12udm4212) Units=km Length=0.046182 bus1=p12udm4211.1.2 bus2=p12udm4212.1.2 switch=n enabled=y phases=2 Linecode=1P_UG_AL_1/0_Brenau_2

New Line.l(r:p12udm4211-p12udt1022lv) Units=km Length=0.0195346 bus1=p12udt1022lv.1.2 bus2=p12udm4211.1.2 switch=n enabled=y phases=2 Linecode=1P_UG_AL_1/0_Brenau_2

New Line.l(r:p12udm4214-p12ulv3595) Units=km Length=0.0119152 bus1=p12udm4214.1.2 bus2=p12ulv3595.1.2 switch=n enabled=y phases=2 Linecode=1P_UG_AL_1/0_Brenau_2

New Line.l(r:p12udm4214-p12ulv4298) Units=km Length=0.0130909 bus1=p12udm4214.1.2 bus2=p12ulv4298.1.2 switch=n enabled=y phases=2 Linecode=1P_UG_AL_1/0_Brenau_2

New Line.l(r:p12udm4214-p12udt1024lv) Units=km Length=0.0486781 bus1=p12udt1024lv.1.2 bus2=p12udm4214.1.2 switch=n enabled=y phases=2 Linecode=1P_UG_AL_1/0_Brenau_2

New Line.l(r:p12udm4217-p12ulv4192) Units=km Length=0.013609100000000002 bus1=p12udm4217.1.2 bus2=p12ulv4192.1.2 switch=n enabled=y phases=2 Linecode=1P_UG_AL_1/0_Brenau_2

New Line.l(r:p12udm4216-p12ulv4181) Units=km Length=0.014602700000000001 bus1=p12udm4216.1.2 bus2=p12ulv4181.1.2 switch=n enabled=y phases=2 Linecode=1P_UG_AL_1/0_Brenau_2

New Line.l(r:p12udm4215-p12ulv4142) Units=km Length=0.0148402 bus1=p12udm4215.1.2 bus2=p12ulv4142.1.2 switch=n enabled=y phases=2 Linecode=1P_UG_AL_1/0_Brenau_2

New Line.l(r:p12udm4215-p12udm4216) Units=km Length=0.00897927 bus1=p12udm4216.1.2 bus2=p12udm4215.1.2 switch=n enabled=y phases=2 Linecode=1P_UG_AL_1/0_Brenau_2

New Line.l(r:p12udm4216-p12udm4217) Units=km Length=0.00898806 bus1=p12udm4217.1.2 bus2=p12udm4216.1.2 switch=n enabled=y phases=2 Linecode=1P_UG_AL_1/0_Brenau_2

New Line.l(r:p12udm4217-p12udt1024lv) Units=km Length=0.0464252 bus1=p12udt1024lv.1.2 bus2=p12udm4217.1.2 switch=n enabled=y phases=2 Linecode=1P_UG_AL_1/0_Brenau_2

New Line.l(r:p12udm4225-p12ulv3600) Units=km Length=0.0101868 bus1=p12udm4225.1.2 bus2=p12ulv3600.1.2 switch=n enabled=y phases=2 Linecode=1P_OH_AL_2/0_Rucina_2

New Line.l(r:p12udm4225-p12udt1027lv) Units=km Length=0.033304400000000005 bus1=p12udt1027lv.1.2 bus2=p12udm4225.1.2 switch=n enabled=y phases=2 Linecode=1P_OH_AL_4/0_Zuzara_2

New Line.l(r:p12udm4226-p12ulv4303) Units=km Length=0.0101971 bus1=p12udm4226.1.2 bus2=p12ulv4303.1.2 switch=n enabled=y phases=2 Linecode=1P_OH_AL_2/0_Rucina_2

New Line.l(r:p12udm4226-p12udt1027lv) Units=km Length=0.0166411 bus1=p12udt1027lv.1.2 bus2=p12udm4226.1.2 switch=n enabled=y phases=2 Linecode=1P_OH_AL_2/0_Rucina_2

New Line.l(r:p12udt1028lv-p12ulv4190) Units=km Length=0.01873 bus1=p12udt1028lv.1.2 bus2=p12ulv4190.1.2 switch=n enabled=y phases=2 Linecode=1P_UG_AL_1/0_Brenau_2

New Line.l(r:p12udm4229-p12ulv4122) Units=km Length=0.041425 bus1=p12udm4229.1.2 bus2=p12ulv4122.1.2 switch=n enabled=y phases=2 Linecode=1P_UG_AL_1/0_Brenau_2

New Line.l(r:p12udm4229-p12ulv4213) Units=km Length=0.00885494 bus1=p12udm4229.1.2 bus2=p12ulv4213.1.2 switch=n enabled=y phases=2 Linecode=1P_UG_AL_1/0_Brenau_2

New Line.l(r:p12udm4228-p12ulv4118) Units=km Length=0.0150238 bus1=p12udm4228.1.2 bus2=p12ulv4118.1.2 switch=n enabled=y phases=2 Linecode=1P_UG_AL_1/0_Brenau_2

New Line.l(r:p12udm4228-p12ulv4245) Units=km Length=0.0172282 bus1=p12udm4228.1.2 bus2=p12ulv4245.1.2 switch=n enabled=y phases=2 Linecode=1P_UG_AL_1/0_Brenau_2

New Line.l(r:p12udm4227-p12ulv3607) Units=km Length=0.0159369 bus1=p12udm4227.1.2 bus2=p12ulv3607.1.2 switch=n enabled=y phases=2 Linecode=1P_UG_AL_1/0_Brenau_2

New Line.l(r:p12udm4227-p12udm4228) Units=km Length=0.00961533 bus1=p12udm4228.1.2 bus2=p12udm4227.1.2 switch=n enabled=y phases=2 Linecode=1P_UG_AL_1/0_Brenau_2

New Line.l(r:p12udm4228-p12udm4229) Units=km Length=0.00960538 bus1=p12udm4229.1.2 bus2=p12udm4228.1.2 switch=n enabled=y phases=2 Linecode=1P_UG_AL_1/0_Brenau_2

New Line.l(r:p12udm4229-p12udt1028lv) Units=km Length=0.00960538 bus1=p12udt1028lv.1.2 bus2=p12udm4229.1.2 switch=n enabled=y phases=2 Linecode=1P_UG_AL_4/0_Sweetbriar_2

New Line.l(r:p12udm4233-p12ulv4223) Units=km Length=0.015286100000000002 bus1=p12udm4233.1.2 bus2=p12ulv4223.1.2 switch=n enabled=y phases=2 Linecode=1P_UG_AL_1/0_Brenau_2

New Line.l(r:p12udm4230-p12ulv4156) Units=km Length=0.0186344 bus1=p12udm4230.1.2 bus2=p12ulv4156.1.2 switch=n enabled=y phases=2 Linecode=1P_UG_AL_1/0_Brenau_2

New Line.l(r:p12udm4230-p12udm4233) Units=km Length=0.0192207 bus1=p12udm4233.1.2 bus2=p12udm4230.1.2 switch=n enabled=y phases=2 Linecode=1P_UG_AL_1/0_Brenau_2

New Line.l(r:p12udm4233-p12udt1028lv) Units=km Length=0.0192097 bus1=p12udt1028lv.1.2 bus2=p12udm4233.1.2 switch=n enabled=y phases=2 Linecode=1P_UG_AL_1/0_Brenau_2

New Line.l(r:p12udt1029lv-p12ulv3627) Units=km Length=0.0347841 bus1=p12udt1029lv.1.2 bus2=p12ulv3627.1.2 switch=n enabled=y phases=2 Linecode=1P_OH_AL_4/0_Zuzara_2

New Line.l(r:p12udm4235-p12ulv3611) Units=km Length=0.0113151 bus1=p12udm4235.1.2 bus2=p12ulv3611.1.2 switch=n enabled=y phases=2 Linecode=1P_OH_AL_2/0_Rucina_2

New Line.l(r:p12udm4235-p12udt1029lv) Units=km Length=0.0205401 bus1=p12udt1029lv.1.2 bus2=p12udm4235.1.2 switch=n enabled=y phases=2 Linecode=1P_OH_AL_2/0_Rucina_2

New Line.l(r:p12udm4237-p12ulv3615) Units=km Length=0.012805 bus1=p12udm4237.1.2 bus2=p12ulv3615.1.2 switch=n enabled=y phases=2 Linecode=1P_UG_AL_1/0_Brenau_2

New Line.l(r:p12udm4237-p12ulv4006) Units=km Length=0.0128868 bus1=p12udm4237.1.2 bus2=p12ulv4006.1.2 switch=n enabled=y phases=2 Linecode=1P_UG_AL_1/0_Brenau_2

New Line.l(r:p12udm4240-p12ulv4020) Units=km Length=0.0146702 bus1=p12udm4240.1.2 bus2=p12ulv4020.1.2 switch=n enabled=y phases=2 Linecode=1P_UG_AL_1/0_Brenau_2

New Line.l(r:p12udm4237-p12udm4240) Units=km Length=0.0289774 bus1=p12udm4237.1.2 bus2=p12udm4240.1.2 switch=n enabled=y phases=2 Linecode=1P_UG_AL_1/0_Brenau_2

New Line.l(r:p12udm4237-p12udt1030lv) Units=km Length=0.00966282 bus1=p12udt1030lv.1.2 bus2=p12udm4237.1.2 switch=n enabled=y phases=2 Linecode=1P_UG_AL_1/0_Brenau_2

New Line.l(r:p12udm4241-p12ulv4085) Units=km Length=0.014047 bus1=p12udm4241.1.2 bus2=p12ulv4085.1.2 switch=n enabled=y phases=2 Linecode=1P_UG_AL_1/0_Brenau_2

New Line.l(r:p12udm4238-p12ulv3996) Units=km Length=0.012994800000000003 bus1=p12udm4238.1.2 bus2=p12ulv3996.1.2 switch=n enabled=y phases=2 Linecode=1P_UG_AL_1/0_Brenau_2

New Line.l(r:p12udm4238-p12udm4241) Units=km Length=0.0483019 bus1=p12udm4241.1.2 bus2=p12udm4238.1.2 switch=n enabled=y phases=2 Linecode=1P_UG_AL_1/0_Brenau_2

New Line.l(r:p12udm4241-p12udt1030lv) Units=km Length=0.00966282 bus1=p12udt1030lv.1.2 bus2=p12udm4241.1.2 switch=n enabled=y phases=2 Linecode=1P_UG_AL_1/0_Brenau_2

New Line.l(r:p12udm4242-p12ulv3631) Units=km Length=0.0147318 bus1=p12udm4242.1.2 bus2=p12ulv3631.1.2 switch=n enabled=y phases=2 Linecode=1P_UG_AL_1/0_Brenau_2

New Line.l(r:p12udm4242-p12ulv4199) Units=km Length=0.015833 bus1=p12udm4242.1.2 bus2=p12ulv4199.1.2 switch=n enabled=y phases=2 Linecode=1P_UG_AL_1/0_Brenau_2

New Line.l(r:p12udm4242-p12udt1031lv) Units=km Length=0.047964 bus1=p12udt1031lv.1.2 bus2=p12udm4242.1.2 switch=n enabled=y phases=2 Linecode=1P_UG_AL_1/0_Brenau_2

New Line.l(r:p12udm4243-p12ulv3998) Units=km Length=0.0110159 bus1=p12udm4243.1.2 bus2=p12ulv3998.1.2 switch=n enabled=y phases=2 Linecode=1P_UG_AL_1/0_Brenau_2

New Line.l(r:p12udm4243-p12ulv4053) Units=km Length=0.012178800000000002 bus1=p12udm4243.1.2 bus2=p12ulv4053.1.2 switch=n enabled=y phases=2 Linecode=1P_UG_AL_1/0_Brenau_2

New Line.l(r:p12udm4243-p12udt1031lv) Units=km Length=0.00977394 bus1=p12udt1031lv.1.2 bus2=p12udm4243.1.2 switch=n enabled=y phases=2 Linecode=1P_UG_AL_1/0_Brenau_2

New Line.l(r:p12udt1032lv-p12ulv3960) Units=km Length=0.0149551 bus1=p12udt1032lv.1.2 bus2=p12ulv3960.1.2 switch=n enabled=y phases=2 Linecode=1P_UG_AL_1/0_Brenau_2

New Line.l(r:p12udm4246-p12ulv3632) Units=km Length=0.0166439 bus1=p12udm4246.1.2 bus2=p12ulv3632.1.2 switch=n enabled=y phases=2 Linecode=1P_UG_AL_1/0_Brenau_2

New Line.l(r:p12udm4246-p12ulv4009) Units=km Length=0.012920500000000001 bus1=p12udm4246.1.2 bus2=p12ulv4009.1.2 switch=n enabled=y phases=2 Linecode=1P_UG_AL_1/0_Brenau_2

New Line.l(r:p12udm4246-p12udt1032lv) Units=km Length=0.0482793 bus1=p12udt1032lv.1.2 bus2=p12udm4246.1.2 switch=n enabled=y phases=2 Linecode=1P_UG_AL_1/0_Brenau_2

New Line.l(r:p12udm4248-p12ulv4002) Units=km Length=0.01008 bus1=p12udm4248.1.2 bus2=p12ulv4002.1.2 switch=n enabled=y phases=2 Linecode=1P_UG_AL_1/0_Brenau_2

New Line.l(r:p12udm4248-p12ulv4070) Units=km Length=0.04633400000000001 bus1=p12udm4248.1.2 bus2=p12ulv4070.1.2 switch=n enabled=y phases=2 Linecode=1P_UG_AL_1/0_Brenau_2

New Line.l(r:p12udm4248-p12udt1032lv) Units=km Length=0.00965586 bus1=p12udt1032lv.1.2 bus2=p12udm4248.1.2 switch=n enabled=y phases=2 Linecode=1P_UG_AL_1/0_Brenau_2

New Line.l(r:p12udm4252-p12ulv34747) Units=km Length=0.0113072 bus1=p12udm4252.1.2 bus2=p12ulv34747.1.2 switch=n enabled=y phases=2 Linecode=1P_UG_AL_1/0_Brenau_2

New Line.l(r:p12udm4250-p12ulv4039) Units=km Length=0.0134903 bus1=p12udm4250.1.2 bus2=p12ulv4039.1.2 switch=n enabled=y phases=2 Linecode=1P_UG_AL_1/0_Brenau_2

New Line.l(r:p12udm4250-p12udm4252) Units=km Length=0.00965586 bus1=p12udm4252.1.2 bus2=p12udm4250.1.2 switch=n enabled=y phases=2 Linecode=1P_UG_AL_1/0_Brenau_2

New Line.l(r:p12udm4252-p12udt1032lv) Units=km Length=0.0193117 bus1=p12udt1032lv.1.2 bus2=p12udm4252.1.2 switch=n enabled=y phases=2 Linecode=1P_UG_AL_1/0_Brenau_2

New Line.l(r:p12udt1138lv-p12ulv3931) Units=km Length=0.00933583 bus1=p12udt1138lv.1.2 bus2=p12ulv3931.1.2 switch=n enabled=y phases=2 Linecode=1P_OH_AL_2/0_Rucina_2

New Line.l(r:p12udm4594-p12ulv3934) Units=km Length=0.0364417 bus1=p12udm4594.1.2 bus2=p12ulv3934.1.2 switch=n enabled=y phases=2 Linecode=1P_OH_AL_4/0_Zuzara_2

New Line.l(r:p12udm4597-p12ulv3956) Units=km Length=0.00872779 bus1=p12udm4597.1.2 bus2=p12ulv3956.1.2 switch=n enabled=y phases=2 Linecode=1P_OH_AL_2/0_Rucina_2

New Line.l(r:p12udm4594-p12udm4597) Units=km Length=0.016659 bus1=p12udm4594.1.2 bus2=p12udm4597.1.2 switch=n enabled=y phases=2 Linecode=1P_OH_AL_2/0_Rucina_2

New Line.l(r:p12udm4594-p12udt1138lv) Units=km Length=0.033313800000000005 bus1=p12udt1138lv.1.2 bus2=p12udm4594.1.2 switch=n enabled=y phases=2 Linecode=1P_OH_AL_4/0_Zuzara_2

New Line.l(r:p12udm4596-p12ulv3944) Units=km Length=0.0240196 bus1=p12udm4596.1.2 bus2=p12ulv3944.1.2 switch=n enabled=y phases=2 Linecode=1P_OH_AL_2/0_Rucina_2

New Line.l(r:p12udm4595-p12ulv3941) Units=km Length=0.012952700000000001 bus1=p12udm4595.1.2 bus2=p12ulv3941.1.2 switch=n enabled=y phases=2 Linecode=1P_OH_AL_2/0_Rucina_2

New Line.l(r:p12udm4595-p12udm4596) Units=km Length=0.0160304 bus1=p12udm4596.1.2 bus2=p12udm4595.1.2 switch=n enabled=y phases=2 Linecode=1P_OH_AL_2/0_Rucina_2

New Line.l(r:p12udm4596-p12udt1138lv) Units=km Length=0.0424859 bus1=p12udt1138lv.1.2 bus2=p12udm4596.1.2 switch=n enabled=y phases=2 Linecode=1P_OH_AL_4/0_Zuzara_2

New Line.l(r:p12udt1139lv-p12ulv4064) Units=km Length=0.009737120000000002 bus1=p12udt1139lv.1.2 bus2=p12ulv4064.1.2 switch=n enabled=y phases=2 Linecode=1P_OH_AL_2/0_Rucina_2

New Line.l(r:p12udm4598-p12ulv3932) Units=km Length=0.012459200000000002 bus1=p12udm4598.1.2 bus2=p12ulv3932.1.2 switch=n enabled=y phases=2 Linecode=1P_OH_AL_2/0_Rucina_2

New Line.l(r:p12udm4598-p12udt1139lv) Units=km Length=0.0388136 bus1=p12udt1139lv.1.2 bus2=p12udm4598.1.2 switch=n enabled=y phases=2 Linecode=1P_OH_AL_4/0_Zuzara_2

New Line.l(r:p12udm4599-p12ulv4028) Units=km Length=0.00629086 bus1=p12udm4599.1.2 bus2=p12ulv4028.1.2 switch=n enabled=y phases=2 Linecode=1P_OH_AL_2/0_Rucina_2

New Line.l(r:p12udm4599-p12udt1139lv) Units=km Length=0.0194074 bus1=p12udt1139lv.1.2 bus2=p12udm4599.1.2 switch=n enabled=y phases=2 Linecode=1P_OH_AL_2/0_Rucina_2

New Line.l(r:p12udt1140lv-p12ulv3933) Units=km Length=0.0653746 bus1=p12udt1140lv.1.2 bus2=p12ulv3933.1.2 switch=n enabled=y phases=2 Linecode=1P_UG_AL_1/0_Brenau_2

New Line.l(r:p12udt1141lv-p12ulv3935) Units=km Length=0.0301672 bus1=p12udt1141lv.1.2 bus2=p12ulv3935.1.2 switch=n enabled=y phases=2 Linecode=1P_UG_AL_1/0_Brenau_2

New Line.l(r:p12udt1141lv-p12ulv3947) Units=km Length=0.0374859 bus1=p12udt1141lv.1.2 bus2=p12ulv3947.1.2 switch=n enabled=y phases=2 Linecode=1P_UG_AL_1/0_Brenau_2

New Line.l(r:p12udm4604-p12ulv3936) Units=km Length=0.0093748 bus1=p12udm4604.1.2 bus2=p12ulv3936.1.2 switch=n enabled=y phases=2 Linecode=1P_OH_AL_2/0_Rucina_2

New Line.l(r:p12udm4604-p12udt1142lv) Units=km Length=0.0458582 bus1=p12udt1142lv.1.2 bus2=p12udm4604.1.2 switch=n enabled=y phases=2 Linecode=1P_OH_AL_4/0_Zuzara_2

New Line.l(r:p12udm4605-p12ulv4196) Units=km Length=0.0448857 bus1=p12udm4605.1.2 bus2=p12ulv4196.1.2 switch=n enabled=y phases=2 Linecode=1P_OH_AL_4/0_Zuzara_2

New Line.l(r:p12udm4605-p12udt1142lv) Units=km Length=0.0211979 bus1=p12udt1142lv.1.2 bus2=p12udm4605.1.2 switch=n enabled=y phases=2 Linecode=1P_OH_AL_2/0_Rucina_2

New Line.l(r:p12udt1143lv-p12ulv3937) Units=km Length=0.0279879 bus1=p12udt1143lv.1.2 bus2=p12ulv3937.1.2 switch=n enabled=y phases=2 Linecode=1P_UG_AL_1/0_Brenau_2

New Line.l(r:p12udt1143lv-p12ulv3948) Units=km Length=0.0321292 bus1=p12udt1143lv.1.2 bus2=p12ulv3948.1.2 switch=n enabled=y phases=2 Linecode=1P_UG_AL_1/0_Brenau_2

New Line.l(r:p12udt1143lv-p12ulv3949) Units=km Length=0.0208717 bus1=p12udt1143lv.1.2 bus2=p12ulv3949.1.2 switch=n enabled=y phases=2 Linecode=1P_UG_AL_1/0_Brenau_2

New Line.l(r:p12udt1143lv-p12ulv28986) Units=km Length=0.0267516 bus1=p12udt1143lv.1.2 bus2=p12ulv28986.1.2 switch=n enabled=y phases=2 Linecode=1P_UG_AL_1/0_Brenau_2

New Line.l(r:p12udt1143lv-p12ulv29101) Units=km Length=0.0330333 bus1=p12udt1143lv.1.2 bus2=p12ulv29101.1.2 switch=n enabled=y phases=2 Linecode=1P_UG_AL_1/0_Brenau_2

New Line.l(r:p12udt1144lv-p12ulv3938) Units=km Length=0.0810102 bus1=p12udt1144lv.1.2 bus2=p12ulv3938.1.2 switch=n enabled=y phases=2 Linecode=1P_OH_AL_4/0_Zuzara_2

New Line.l(r:p12udt1144lv-p12ulv3950) Units=km Length=0.0562918 bus1=p12udt1144lv.1.2 bus2=p12ulv3950.1.2 switch=n enabled=y phases=2 Linecode=1P_OH_AL_4/0_Zuzara_2

New Line.l(r:p12udt1145lv-p12ulv4072) Units=km Length=0.0196744 bus1=p12udt1145lv.1.2 bus2=p12ulv4072.1.2 switch=n enabled=y phases=2 Linecode=1P_UG_AL_1/0_Brenau_2

New Line.l(r:p12udm4613-p12ulv3939) Units=km Length=0.0137099 bus1=p12udm4613.1.2 bus2=p12ulv3939.1.2 switch=n enabled=y phases=2 Linecode=1P_UG_AL_1/0_Brenau_2

New Line.l(r:p12udm4614-p12ulv3959) Units=km Length=0.015211 bus1=p12udm4614.1.2 bus2=p12ulv3959.1.2 switch=n enabled=y phases=2 Linecode=1P_UG_AL_1/0_Brenau_2

New Line.l(r:p12udm4613-p12udm4614) Units=km Length=0.0788209 bus1=p12udm4613.1.2 bus2=p12udm4614.1.2 switch=n enabled=y phases=2 Linecode=1P_UG_AL_1/0_Brenau_2

New Line.l(r:p12udm4613-p12udt1145lv) Units=km Length=0.00964627 bus1=p12udt1145lv.1.2 bus2=p12udm4613.1.2 switch=n enabled=y phases=2 Linecode=1P_UG_AL_1/0_Brenau_2

New Line.l(r:p12udm4616-p12ulv4079) Units=km Length=0.04576580000000001 bus1=p12udm4616.1.2 bus2=p12ulv4079.1.2 switch=n enabled=y phases=2 Linecode=1P_UG_AL_1/0_Brenau_2

New Line.l(r:p12udm4617-p12ulv4124) Units=km Length=0.0189931 bus1=p12udm4617.1.2 bus2=p12ulv4124.1.2 switch=n enabled=y phases=2 Linecode=1P_UG_AL_1/0_Brenau_2

New Line.l(r:p12udm4616-p12udm4617) Units=km Length=0.019302500000000004 bus1=p12udm4616.1.2 bus2=p12udm4617.1.2 switch=n enabled=y phases=2 Linecode=1P_UG_AL_1/0_Brenau_2

New Line.l(r:p12udm4616-p12udt1145lv) Units=km Length=0.00964569 bus1=p12udt1145lv.1.2 bus2=p12udm4616.1.2 switch=n enabled=y phases=2 Linecode=1P_UG_AL_1/0_Brenau_2

New Line.l(r:p12udt1146lv-p12ulv40241) Units=km Length=0.0170257 bus1=p12udt1146lv.1.2 bus2=p12ulv40241.1.2 switch=n enabled=y phases=2 Linecode=1P_UG_AL_1/0_Brenau_2

New Line.l(r:p12udm4618-p12ulv3940) Units=km Length=0.0126565 bus1=p12udm4618.1.2 bus2=p12ulv3940.1.2 switch=n enabled=y phases=2 Linecode=1P_UG_AL_1/0_Brenau_2

New Line.l(r:p12udm4620-p12ulv4229) Units=km Length=0.0156049 bus1=p12udm4620.1.2 bus2=p12ulv4229.1.2 switch=n enabled=y phases=2 Linecode=1P_UG_AL_1/0_Brenau_2

New Line.l(r:p12udm4618-p12udm4620) Units=km Length=0.00987927 bus1=p12udm4618.1.2 bus2=p12udm4620.1.2 switch=n enabled=y phases=2 Linecode=1P_UG_AL_1/0_Brenau_2

New Line.l(r:p12udm4618-p12udt1146lv) Units=km Length=0.0197577 bus1=p12udt1146lv.1.2 bus2=p12udm4618.1.2 switch=n enabled=y phases=2 Linecode=1P_UG_AL_2/0_Converse_2

New Line.l(r:p12udm4619-p12ulv3946) Units=km Length=0.0147933 bus1=p12udm4619.1.2 bus2=p12ulv3946.1.2 switch=n enabled=y phases=2 Linecode=1P_UG_AL_1/0_Brenau_2

New Line.l(r:p12udm4619-p12udt1146lv) Units=km Length=0.0395262 bus1=p12udt1146lv.1.2 bus2=p12udm4619.1.2 switch=n enabled=y phases=2 Linecode=1P_UG_AL_1/0_Brenau_2

New Line.l(r:p12udt1147lv-p12ulv3942) Units=km Length=0.0169953 bus1=p12udt1147lv.1.2 bus2=p12ulv3942.1.2 switch=n enabled=y phases=2 Linecode=1P_UG_AL_1/0_Brenau_2

New Line.l(r:p12udm4623-p12ulv3951) Units=km Length=0.0202014 bus1=p12udm4623.1.2 bus2=p12ulv3951.1.2 switch=n enabled=y phases=2 Linecode=1P_UG_AL_1/0_Brenau_2

New Line.l(r:p12udm4623-p12udt1147lv) Units=km Length=0.0528614 bus1=p12udt1147lv.1.2 bus2=p12udm4623.1.2 switch=n enabled=y phases=2 Linecode=1P_UG_AL_1/0_Brenau_2

New Line.l(r:p12udm4625-p12ulv40284) Units=km Length=0.0230355 bus1=p12udm4625.1.2 bus2=p12ulv40284.1.2 switch=n enabled=y phases=2 Linecode=1P_UG_AL_1/0_Brenau_2

New Line.l(r:p12udm4624-p12ulv3954) Units=km Length=0.037905900000000006 bus1=p12udm4624.1.2 bus2=p12ulv3954.1.2 switch=n enabled=y phases=2 Linecode=1P_UG_AL_1/0_Brenau_2

New Line.l(r:p12udm4624-p12udm4625) Units=km Length=0.0709899 bus1=p12udm4625.1.2 bus2=p12udm4624.1.2 switch=n enabled=y phases=2 Linecode=1P_UG_AL_1/0_Brenau_2

New Line.l(r:p12udm4625-p12udt1147lv) Units=km Length=0.00853816 bus1=p12udt1147lv.1.2 bus2=p12udm4625.1.2 switch=n enabled=y phases=2 Linecode=1P_UG_AL_1/0_Brenau_2

New Line.l(r:p12udt1148lv-p12ulv3943) Units=km Length=0.0977036 bus1=p12udt1148lv.1.2 bus2=p12ulv3943.1.2 switch=n enabled=y phases=2 Linecode=1P_UG_AL_1/0_Brenau_2

New Line.l(r:p12udm4627-p12ulv40072) Units=km Length=0.015654 bus1=p12udm4627.1.2 bus2=p12ulv40072.1.2 switch=n enabled=y phases=2 Linecode=1P_UG_AL_1/0_Brenau_2

New Line.l(r:p12udm4627-p12udt1148lv) Units=km Length=0.00987927 bus1=p12udt1148lv.1.2 bus2=p12udm4627.1.2 switch=n enabled=y phases=2 Linecode=1P_UG_AL_1/0_Brenau_2

New Line.l(r:p12udm4628-p12ulv40248) Units=km Length=0.0199804 bus1=p12udm4628.1.2 bus2=p12ulv40248.1.2 switch=n enabled=y phases=2 Linecode=1P_UG_AL_1/0_Brenau_2

New Line.l(r:p12udm4628-p12udt1148lv) Units=km Length=0.0296369 bus1=p12udt1148lv.1.2 bus2=p12udm4628.1.2 switch=n enabled=y phases=2 Linecode=1P_UG_AL_1/0_Brenau_2

New Line.l(r:p12udm4629-p12ulv3945) Units=km Length=0.0172804 bus1=p12udm4629.1.2 bus2=p12ulv3945.1.2 switch=n enabled=y phases=2 Linecode=1P_UG_AL_1/0_Brenau_2

New Line.l(r:p12udm4629-p12ulv4023) Units=km Length=0.0101112 bus1=p12udm4629.1.2 bus2=p12ulv4023.1.2 switch=n enabled=y phases=2 Linecode=1P_UG_AL_1/0_Brenau_2

New Line.l(r:p12udm4634-p12ulv4276) Units=km Length=0.0638103 bus1=p12udm4634.1.2 bus2=p12ulv4276.1.2 switch=n enabled=y phases=2 Linecode=1P_UG_AL_1/0_Brenau_2

New Line.l(r:p12udm4629-p12udm4634) Units=km Length=0.0373075 bus1=p12udm4629.1.2 bus2=p12udm4634.1.2 switch=n enabled=y phases=2 Linecode=1P_UG_AL_1/0_Brenau_2

New Line.l(r:p12udm4629-p12udt1149lv) Units=km Length=0.0182705 bus1=p12udt1149lv.1.2 bus2=p12udm4629.1.2 switch=n enabled=y phases=2 Linecode=1P_UG_AL_1/0_Brenau_2

New Line.l(r:p12udm4632-p12ulv4074) Units=km Length=0.02312 bus1=p12udm4632.1.2 bus2=p12ulv4074.1.2 switch=n enabled=y phases=2 Linecode=1P_UG_AL_1/0_Brenau_2

New Line.l(r:p12udm4630-p12ulv3955) Units=km Length=0.0163506 bus1=p12udm4630.1.2 bus2=p12ulv3955.1.2 switch=n enabled=y phases=2 Linecode=1P_UG_AL_1/0_Brenau_2

New Line.l(r:p12udm4633-p12ulv4269) Units=km Length=0.0549832 bus1=p12udm4633.1.2 bus2=p12ulv4269.1.2 switch=n enabled=y phases=2 Linecode=1P_UG_AL_1/0_Brenau_2

...