tests/data/upgrade-models/sb10_p12uhs5_1247_trans_301/p12udt6981/OpenDSS/Loads.dss
New Load.load_p12ulv3331_1 conn=wye bus1=p12ulv3331.1 kV=0.12 Vminpu=0.8 Vmaxpu=1.2 model=1 kW=4.638495348080427 kvar=1.2897108277918248 Phases=1
New Load.load_p12ulv3331_2 conn=wye bus1=p12ulv3331.2 kV=0.12 Vminpu=0.8 Vmaxpu=1.2 model=1 kW=4.638495348080427 kvar=1.2897108277918248 Phases=1
New Load.load_p12ulv3332_1 conn=wye bus1=p12ulv3332.1 kV=0.12 Vminpu=0.8 Vmaxpu=1.2 model=1 kW=2.444725768387703 kvar=0.6902267912659802 Phases=1
New Load.load_p12ulv3332_2 conn=wye bus1=p12ulv3332.2 kV=0.12 Vminpu=0.8 Vmaxpu=1.2 model=1 kW=2.444725768387703 kvar=0.6902267912659802 Phases=1
New Load.load_p12ulv3336_1 conn=wye bus1=p12ulv3336.1 kV=0.12 Vminpu=0.8 Vmaxpu=1.2 model=1 kW=4.933146793098512 kvar=0.9686684100837105 Phases=1
New Load.load_p12ulv3336_2 conn=wye bus1=p12ulv3336.2 kV=0.12 Vminpu=0.8 Vmaxpu=1.2 model=1 kW=4.933146793098512 kvar=0.9686684100837105 Phases=1
New Load.load_p12ulv3342_1 conn=wye bus1=p12ulv3342.1 kV=0.12 Vminpu=0.8 Vmaxpu=1.2 model=1 kW=4.0515941160402 kvar=0.18100721021186303 Phases=1
New Load.load_p12ulv3342_2 conn=wye bus1=p12ulv3342.2 kV=0.12 Vminpu=0.8 Vmaxpu=1.2 model=1 kW=4.0515941160402 kvar=0.18100721021186303 Phases=1
New Load.load_p12ulv3344_1 conn=wye bus1=p12ulv3344.1 kV=0.12 Vminpu=0.8 Vmaxpu=1.2 model=1 kW=1.2129549589222124 kvar=0.2768906250641312 Phases=1
New Load.load_p12ulv3344_2 conn=wye bus1=p12ulv3344.2 kV=0.12 Vminpu=0.8 Vmaxpu=1.2 model=1 kW=1.2129549589222124 kvar=0.2768906250641312 Phases=1
New Load.load_p12ulv3346_1 conn=wye bus1=p12ulv3346.1 kV=0.12 Vminpu=0.8 Vmaxpu=1.2 model=1 kW=3.114920450878103 kvar=0.8250305459557633 Phases=1
New Load.load_p12ulv3346_2 conn=wye bus1=p12ulv3346.2 kV=0.12 Vminpu=0.8 Vmaxpu=1.2 model=1 kW=3.114920450878103 kvar=0.8250305459557633 Phases=1
New Load.load_p12ulv3347_1 conn=wye bus1=p12ulv3347.1 kV=0.12 Vminpu=0.8 Vmaxpu=1.2 model=1 kW=2.365256087534968 kvar=0.9406994095530364 Phases=1
New Load.load_p12ulv3347_2 conn=wye bus1=p12ulv3347.2 kV=0.12 Vminpu=0.8 Vmaxpu=1.2 model=1 kW=2.365256087534968 kvar=0.9406994095530364 Phases=1
New Load.load_p12ulv3348_1 conn=wye bus1=p12ulv3348.1 kV=0.12 Vminpu=0.8 Vmaxpu=1.2 model=1 kW=1.4663769608466568 kvar=0.5502546109327153 Phases=1
New Load.load_p12ulv3348_2 conn=wye bus1=p12ulv3348.2 kV=0.12 Vminpu=0.8 Vmaxpu=1.2 model=1 kW=1.4663769608466568 kvar=0.5502546109327153 Phases=1
New Load.load_p12ulv3350_1 conn=wye bus1=p12ulv3350.1 kV=0.12 Vminpu=0.8 Vmaxpu=1.2 model=1 kW=2.8928731343757987 kvar=1.0067082172753379 Phases=1
New Load.load_p12ulv3350_2 conn=wye bus1=p12ulv3350.2 kV=0.12 Vminpu=0.8 Vmaxpu=1.2 model=1 kW=2.8928731343757987 kvar=1.0067082172753379 Phases=1
New Load.load_p12ulv3355_1 conn=wye bus1=p12ulv3355.1 kV=0.12 Vminpu=0.8 Vmaxpu=1.2 model=1 kW=1.3656179673346736 kvar=0.3228496606319008 Phases=1
New Load.load_p12ulv3355_2 conn=wye bus1=p12ulv3355.2 kV=0.12 Vminpu=0.8 Vmaxpu=1.2 model=1 kW=1.3656179673346736 kvar=0.3228496606319008 Phases=1
New Load.load_p12ulv3357_1 conn=wye bus1=p12ulv3357.1 kV=0.12 Vminpu=0.8 Vmaxpu=1.2 model=1 kW=0.895854429151281 kvar=0.6750370195342454 Phases=1
New Load.load_p12ulv3357_2 conn=wye bus1=p12ulv3357.2 kV=0.12 Vminpu=0.8 Vmaxpu=1.2 model=1 kW=0.895854429151281 kvar=0.6750370195342454 Phases=1
New Load.load_p12ulv3363_1 conn=wye bus1=p12ulv3363.1 kV=0.12 Vminpu=0.8 Vmaxpu=1.2 model=1 kW=2.606959916668558 kvar=0.5550307077474157 Phases=1
New Load.load_p12ulv3363_2 conn=wye bus1=p12ulv3363.2 kV=0.12 Vminpu=0.8 Vmaxpu=1.2 model=1 kW=2.606959916668558 kvar=0.5550307077474157 Phases=1
New Load.load_p12ulv3364_1 conn=wye bus1=p12ulv3364.1 kV=0.12 Vminpu=0.8 Vmaxpu=1.2 model=1 kW=3.7539388165110568 kvar=0.8465948497897763 Phases=1
New Load.load_p12ulv3364_2 conn=wye bus1=p12ulv3364.2 kV=0.12 Vminpu=0.8 Vmaxpu=1.2 model=1 kW=3.7539388165110568 kvar=0.8465948497897763 Phases=1
New Load.load_p12ulv3367_1 conn=wye bus1=p12ulv3367.1 kV=0.12 Vminpu=0.8 Vmaxpu=1.2 model=1 kW=6.867626793239689 kvar=1.1686393939366313 Phases=1
New Load.load_p12ulv3367_2 conn=wye bus1=p12ulv3367.2 kV=0.12 Vminpu=0.8 Vmaxpu=1.2 model=1 kW=6.867626793239689 kvar=1.1686393939366313 Phases=1
New Load.load_p12ulv3378_1 conn=wye bus1=p12ulv3378.1 kV=0.12 Vminpu=0.8 Vmaxpu=1.2 model=1 kW=1.9029063430901945 kvar=0.888181875092591 Phases=1
New Load.load_p12ulv3378_2 conn=wye bus1=p12ulv3378.2 kV=0.12 Vminpu=0.8 Vmaxpu=1.2 model=1 kW=1.9029063430901945 kvar=0.888181875092591 Phases=1
New Load.load_p12ulv3379_1 conn=wye bus1=p12ulv3379.1 kV=0.12 Vminpu=0.8 Vmaxpu=1.2 model=1 kW=1.2247307924204822 kvar=0.2816114072864515 Phases=1
New Load.load_p12ulv3379_2 conn=wye bus1=p12ulv3379.2 kV=0.12 Vminpu=0.8 Vmaxpu=1.2 model=1 kW=1.2247307924204822 kvar=0.2816114072864515 Phases=1
New Load.load_p12ulv3382_1 conn=wye bus1=p12ulv3382.1 kV=0.12 Vminpu=0.8 Vmaxpu=1.2 model=1 kW=2.4991495076440033 kvar=0.3360328736424813 Phases=1
New Load.load_p12ulv3382_2 conn=wye bus1=p12ulv3382.2 kV=0.12 Vminpu=0.8 Vmaxpu=1.2 model=1 kW=2.4991495076440033 kvar=0.3360328736424813 Phases=1
...